
* LED Models for LTL

* Base LED (Green)
.MODEL LEDW D(Cjo=30p IS=3.9447E-12 N=4.9950 RS=16.382)

* Wired and LED (Red)
.MODEL LEDR D(Cjo=10p IS=2.6432E-24 N=1.4571 RS=2.0918 IKF=3.9036E-3)
